WIDTH=256;
DEPTH=256;

ADDRESS_RADIX=HEX;
DATA_RADIX=HEX;

CONTENT BEGIN
   00 : 0000000000000000000000000000000000000000000000000000000000000000 ;
   01 : 0000000000FC0102014A01020102017A01320102010200FC0000000000000000 ;
   02 : 0000000000FC01FE01B601FE01FE018601CE01FE01FE00FC0000000000000000 ;
   03 : 0000000000000000006C00FE00FE00FE00FE007C003800100000000000000000 ;
   04 : 000000000000000000100038007C00FE007C0038001000000000000000000000 ;
   05 : 00000000000000300078007801CE01CE01CE0030003000780000000000000000 ;
   06 : 0000000000000030007800FC01FE01FE00FC0030003000780000000000000000 ;
   07 : 0000000000000000000000000030007800780030000000000000000000000000 ;
   08 : 01FE01FE01FE01FE01FE01FE01CE0186018601CE01FE01FE01FE01FE01FE01FE ;
   09 : 00000000000000000000007800CC0084008400CC007800000000000000000000 ;
   0A : 01FE01FE01FE01FE01FE01860132017A017A0132018601FE01FE01FE01FE01FE ;
   0B : 0000000000F000E000B00098003C0066006600660066003C0000000000000000 ;
   0C : 00000000007800CC00CC00CC00CC0078003000FC003000300000000000000000 ;
   0D : 0000000001F8019801F80018001800180018001C001E000E0000000000000000 ;
   0E : 0000000001FC018C01FC018C018C018C018C01CC01CE00CE0006000000000000 ;
   0F : 0000000000000030003001B6007801CE007801B6003000300000000000000000 ;
   10 : 000000020006000E001E003E00FE003E001E000E000600020000000000000000 ;
   11 : 0000008000C000E000F000F800FE00F800F000E000C000800000000000000000 ;
   12 : 000000000030007800FC00300030003000FC0078003000000000000000000000 ;
   13 : 0000000000CC00CC00CC00CC00CC00CC00CC000000CC00CC0000000000000000 ;
   14 : 0000000001FC01B601B601B601BC01B001B001B001B001B00000000000000000 ;
   15 : 0000007C00C6000C0038006C00C600C6006C0038006000C6007C000000000000 ;
   16 : 0000000000000000000000000000000000FE00FE00FE00FE0000000000000000 ;
   17 : 000000000030007800FC00300030003000FC0078003000FC0000000000000000 ;
   18 : 000000000030007800FC00300030003000300030003000300000000000000000 ;
   19 : 00000000003000300030003000300030003000FC007800300000000000000000 ;
   1A : 000000000000000000000030006000FE00600030000000000000000000000000 ;
   1B : 000000000000000000000018000C00FE000C0018000000000000000000000000 ;
   1C : 00000000000000000000000000060006000600FE000000000000000000000000 ;
   1D : 000000000000000000000028006C00FE006C0028000000000000000000000000 ;
   1E : 0000000000000000001000380038007C007C00FE00FE00000000000000000000 ;
   1F : 000000000000000000FE00FE007C007C00380038001000000000000000000000 ;
   20 : 0000000000000000000000000000000000000000000000000000000000000000 ;
   21 : 0000000000300078007800780030003000300000003000300000000000000000 ;
   22 : 000000CC00CC00CC004800000000000000000000000000000000000000000000 ;
   23 : 000000000000006C006C00FE006C006C006C00FE006C006C0000000000000000 ;
   24 : 00300030007C00C600860006007C00C000C000C200C6007C0030003000000000 ;
   25 : 0000000000000000008600C6006000300018000C00C600C20000000000000000 ;
   26 : 000000000038006C006C003800DC007600660066006600DC0000000000000000 ;
   27 : 0000001800180018000C00000000000000000000000000000000000000000000 ;
   28 : 0000000000600030001800180018001800180018003000600000000000000000 ;
   29 : 0000000000180030006000600060006000600060003000180000000000000000 ;
   2A : 0000000000000000000000CC007801FE007800CC000000000000000000000000 ;
   2B : 000000000000000000000030003000FC00300030000000000000000000000000 ;
   2C : 0000000000000000000000000000000000000030003000300018000000000000 ;
   2D : 000000000000000000000000000000FE00000000000000000000000000000000 ;
   2E : 0000000000000000000000000000000000000000003000300000000000000000 ;
   2F : 0000000000000000008000C0006000300018000C000600020000000000000000 ;
   30 : 000000000038006C00C600C600D600D600C600C6006C00380000000000000000 ;
   31 : 0000000000300038003C00300030003000300030003000FC0000000000000000 ;
   32 : 00000000007C00C600C0006000300018000C000600C600FE0000000000000000 ;
   33 : 00000000007C00C600C000C0007800C000C000C000C6007C0000000000000000 ;
   34 : 00000000006000700078006C006600FE00600060006000F00000000000000000 ;
   35 : 0000000000FE000600060006007E00C000C000C000C6007C0000000000000000 ;
   36 : 000000000038000C00060006007E00C600C600C600C6007C0000000000000000 ;
   37 : 0000000000FE00C600C000C00060003000180018001800180000000000000000 ;
   38 : 00000000007C00C600C600C6007C00C600C600C600C6007C0000000000000000 ;
   39 : 00000000007C00C600C600C600FC00C000C000C00060003C0000000000000000 ;
   3A : 0000000000000000003000300000000000000030003000000000000000000000 ;
   3B : 0000000000000000003000300000000000000030003000180000000000000000 ;
   3C : 00000000000000C0006000300018000C00180030006000C00000000000000000 ;
   3D : 0000000000000000000000FC0000000000FC0000000000000000000000000000 ;
   3E : 000000000000000C00180030006000C0006000300018000C0000000000000000 ;
   3F : 00000000007C00C600C600600030003000300000003000300000000000000000 ;
   40 : 000000000000007C00C600C600F600F600F600760006007C0000000000000000 ;
   41 : 0000000000100038006C00C600C600FE00C600C600C600C60000000000000000 ;
   42 : 00000000007E00CC00CC00CC007C00CC00CC00CC00CC007E0000000000000000 ;
   43 : 00000000007800CC00860006000600060006008600CC00780000000000000000 ;
   44 : 00000000003E006C00CC00CC00CC00CC00CC00CC006C003E0000000000000000 ;
   45 : 0000000000FE00CC008C002C003C002C000C008C00CC00FE0000000000000000 ;
   46 : 0000000000FE00CC008C002C003C002C000C000C000C001E0000000000000000 ;
   47 : 00000000007800CC00860006000600F600C600C600CC00B80000000000000000 ;
   48 : 0000000000C600C600C600C600FE00C600C600C600C600C60000000000000000 ;
   49 : 0000000000780030003000300030003000300030003000780000000000000000 ;
   4A : 0000000000F000600060006000600060006600660066003C0000000000000000 ;
   4B : 0000000000CE00CC00CC006C003C003C006C00CC00CC00CE0000000000000000 ;
   4C : 00000000001E000C000C000C000C000C000C008C00CC00FE0000000000000000 ;
   4D : 0000000000C600EE00FE00FE00D600C600C600C600C600C60000000000000000 ;
   4E : 0000000000C600CE00DE00FE00F600E600C600C600C600C60000000000000000 ;
   4F : 00000000007C00C600C600C600C600C600C600C600C6007C0000000000000000 ;
   50 : 00000000007E00CC00CC00CC007C000C000C000C000C001E0000000000000000 ;
   51 : 00000000007C00C600C600C600C600C600C600D600F6007C006000E000000000 ;
   52 : 00000000007E00CC00CC00CC007C006C00CC00CC00CC00CE0000000000000000 ;
   53 : 00000000007C00C600C6000C0038006000C000C600C6007C0000000000000000 ;
   54 : 0000000000FC00FC00B400300030003000300030003000780000000000000000 ;
   55 : 0000000000C600C600C600C600C600C600C600C600C6007C0000000000000000 ;
   56 : 0000000000C600C600C600C600C600C600C6006C003800100000000000000000 ;
   57 : 0000000000C600C600C600C600D600D600D600FE00EE006C0000000000000000 ;
   58 : 0000000000C600C6006C007C00380038007C006C00C600C60000000000000000 ;
   59 : 0000000000CC00CC00CC00CC0078003000300030003000780000000000000000 ;
   5A : 0000000000FE00C600C2006000300018000C008600C600FE0000000000000000 ;
   5B : 0000000000780018001800180018001800180018001800780000000000000000 ;
   5C : 00000000000000020006000E001C0038007000E000C000800000000000000000 ;
   5D : 0000000000780060006000600060006000600060006000780000000000000000 ;
   5E : 00100038006C00C6000000000000000000000000000000000000000000000000 ;
   5F : 000000000000000000000000000000000000000000000000000001FE00000000 ;
   60 : 0018001800300000000000000000000000000000000000000000000000000000 ;
   61 : 00000000000000000000003C0060007C00660066006600DC0000000000000000 ;
   62 : 00000000000E000C000C003C006C00CC00CC00CC00CC007C0000000000000000 ;
   63 : 00000000000000000000007C00C600060006000600C6007C0000000000000000 ;
   64 : 000000000070006000600078006C006600660066006600DC0000000000000000 ;
   65 : 00000000000000000000007C00C600FE0006000600C6007C0000000000000000 ;
   66 : 000000000038006C004C000C001E000C000C000C000C001E0000000000000000 ;
   67 : 0000000000000000000000DC00660066006600660066007C00600066003C0000 ;
   68 : 00000000000E000C000C006C00DC00CC00CC00CC00CC00CE0000000000000000 ;
   69 : 0000000000300030000000380030003000300030003000780000000000000000 ;
   6A : 0000000000C000C0000000E000C000C000C000C000C000C000CC00CC00780000 ;
   6B : 00000000000E000C000C00CC006C003C003C006C00CC00CE0000000000000000 ;
   6C : 0000000000380030003000300030003000300030003000780000000000000000 ;
   6D : 00000000000000000000006E00FE00D600D600D600D600C60000000000000000 ;
   6E : 00000000000000000000007600CC00CC00CC00CC00CC00CC0000000000000000 ;
   6F : 00000000000000000000007C00C600C600C600C600C6007C0000000000000000 ;
   70 : 00000000000000000000007600CC00CC00CC00CC00CC007C000C000C001E0000 ;
   71 : 0000000000000000000000DC00660066006600660066007C0060006000F00000 ;
   72 : 00000000000000000000007600DC00CC000C000C000C001E0000000000000000 ;
   73 : 00000000000000000000007C00C6000C0038006000C6007C0000000000000000 ;
   74 : 00000000001000180018007E001800180018001800D800700000000000000000 ;
   75 : 0000000000000000000000660066006600660066006600DC0000000000000000 ;
   76 : 0000000000000000000000CC00CC00CC00CC00CC007800300000000000000000 ;
   77 : 0000000000000000000000C600C600D600D600D600FE006C0000000000000000 ;
   78 : 0000000000000000000000C6006C003800380038006C00C60000000000000000 ;
   79 : 0000000000000000000000C600C600C600C600C600C600FC00C00060003E0000 ;
   7A : 0000000000000000000000FE006600300018000C00C600FE0000000000000000 ;
   7B : 0000000000E0003000300030001C003000300030003000E00000000000000000 ;
   7C : 0000000000300030003000300000003000300030003000300000000000000000 ;
   7D : 00000000001C00300030003000E00030003000300030001C0000000000000000 ;
   7E : 0000000000DC0076000000000000000000000000000000000000000000000000 ;
   7F : 000000000000000000100038006C00C600C600C600FE00000000000000000000 ;
   80 : 0000000000100038006C00C600C600FE00C600C600C600C60000000000000000 ;
   81 : 00000000007E00CC00CC00CC007C00CC00CC00CC00CC007E0000000000000000 ;
   82 : 0000000000FE0086000600060006000600060006000600060000000000000000 ;
   83 : 0000000000100038006C00C600C600C600C600C600C600FE0000000000000000 ;
   84 : 0000000000FE00CC008C002C003C002C000C008C00CC00FE0000000000000000 ;
   85 : 0000000000FE00C600C2006000300018000C008600C600FE0000000000000000 ;
   86 : 0000000000C600C600C600C600FE00C600C600C600C600C60000000000000000 ;
   87 : 00000000007C00C600C600C600FE00C600C600C600C6007C0000000000000000 ;
   88 : 0000000000780030003000300030003000300030003000780000000000000000 ;
   89 : 0000000000CE00CC00CC006C003C003C006C00CC00CC00CE0000000000000000 ;
   8A : 0000000000100038006C00C600C600C600C600C600C600C60000000000000000 ;
   8B : 0000000000C600EE00FE00FE00D600C600C600C600C600C60000000000000000 ;
   8C : 0000000000C600CE00DE00FE00F600E600C600C600C600C60000000000000000 ;
   8D : 0000000000FE008200000000007C000000000000008200FE0000000000000000 ;
   8E : 00000000007C00C600C600C600C600C600C600C600C6007C0000000000000000 ;
   8F : 0000000000FE00C600C600C600C600C600C600C600C600C60000000000000000 ;
   90 : 00000000007E00CC00CC00CC007C000C000C000C000C001E0000000000000000 ;
   91 : 0000000000FE00C6008C0018003000300018008C00C600FE0000000000000000 ;
   92 : 0000000000FC00FC00B400300030003000300030003000780000000000000000 ;
   93 : 0000000000CC00CC00CC00CC0078003000300030003000780000000000000000 ;
   94 : 00000000007C00D600D600D600D600D6007C00100010007C0000000000000000 ;
   95 : 0000000000C600C6006C007C00380038007C006C00C600C60000000000000000 ;
   96 : 0000000000D600D600D600D600D600D6007C00100010007C0000000000000000 ;
   97 : 00000000007C00C600C600C600C600C600EE006C006C00EE0000000000000000 ;
   98 : 0000000000000000000000DC0066006600660066006600DC0000000000000000 ;
   99 : 00000000003C006600660066003E0066006600660066003E0006000600060000 ;
   9A : 0000000000000000000000C600C600C600C6006C0038006C00C600C6007C0000 ;
   9B : 00000000007E0006000C00180030007C00C600C600C6007C0000000000000000 ;
   9C : 0000000000000000000000FC00060006007C0006000600FC0000000000000000 ;
   9D : 0000000000FE006000300018000C0006000600060006007C00C000C000780000 ;
   9E : 00000000000000000000007600CC00CC00CC00CC00CC00CC0000000000000000 ;
   9F : 00000000003C006600600060007C0066006600660066003C0000000000000000 ;
   A0 : 0000000000000000000000300030003000300030003000E00000000000000000 ;
   A1 : 0000000000000000000000CE006C003C003C006C00CC00CE0000000000000000 ;
   A2 : 00000000007C00C600C000C000F800CC00C600C600C600C60000000000000000 ;
   A3 : 0000000000000000000000660066006600660066006600DE0006000600060000 ;
   A4 : 0000000000000000000000CC00CC00CC00CC00CC007800300000000000000000 ;
   A5 : 0000000000FE006000300018000C000C0078000C0006007C00C000C000780000 ;
   A6 : 00000000000000000000007C00C600C600C600C600C6007C0000000000000000 ;
   A7 : 0000000000000000000000FE00C600C600C600C600C600C60000000000000000 ;
   A8 : 00000000000000000000007800CC00CC00CC00CC00CC007C000C000C000C0000 ;
   A9 : 0000000000000000000000FC00660066006600660066003C0000000000000000 ;
   AA : 00000000000000000000007C00C60006007C00C000C6007C0000000000000000 ;
   AB : 00000000000000000000007E001800180018001800D800700000000000000000 ;
   AC : 0000000000000000000000C600C600C600C600C600C6007C0000000000000000 ;
   AD : 00000000000000000000007C0006007600D600D600D6007C0010001000100000 ;
   AE : 0000000000000000000000C6006C003800380038006C00C60000000000000000 ;
   AF : 0000000000000000000000D600D600D600D600D600D6007C0010001000100000 ;
   B0 : 0044011000440110004401100044011000440110004401100044011000440110 ;
   B1 : 015400AB015400AB015400AB015400AB015400AB015400AB015400AB015400AB ;
   B2 : 017701DC017701DC017701DC017701DC017701DC017701DC017701DC017701DC ;
   B3 : 0031003100310031003100310031003100310031003100310031003100310031 ;
   B4 : 0030003000300030003000300030003E00300030003000300030003000300030 ;
   B5 : 00300030003000300030003E0030003E00300030003000300030003000300030 ;
   B6 : 00D800D800D800D800D800D800D800DE00D800D800D800D800D800D800D800D8 ;
   B7 : 000000000000000000000000000000FE00D800D800D800D800D800D800D800D8 ;
   B8 : 00000000000000000000003E0030003E00300030003000300030003000300030 ;
   B9 : 00D800D800D800D800D800DE00C000DE00D800D800D800D800D800D800D800D8 ;
   BA : 00D800D800D800D800D800D800D800D800D800D800D800D800D800D800D800D8 ;
   BB : 0000000000000000000000FE00C000DE00D800D800D800D800D800D800D800D8 ;
   BC : 00D800D800D800D800D800DE00C000FE00000000000000000000000000000000 ;
   BD : 00D800D800D800D800D800D800D800FE00000000000000000000000000000000 ;
   BE : 00300030003000300030003E0030003E00000000000000000000000000000000 ;
   BF : 0000000000000000000000000000003E00300030003000300030003000300030 ;
   C0 : 003000300030003000300030003001F000000000000000000000000000000000 ;
   C1 : 003000300030003000300030003001FF00000000000000000000000000000000 ;
   C2 : 000000000000000000000000000001FF00300030003000300030003000300030 ;
   C3 : 003000300030003000300030003001F100300030003000300030003000300030 ;
   C4 : 000000000000000000000000000001FF00000000000000000000000000000000 ;
   C5 : 003000300030003000300030003001FF00300030003000300030003000300030 ;
   C6 : 0030003000300030003001F0003001F100300030003000300030003000300030 ;
   C7 : 00D800D800D800D800D800D900D801D900D800D800D800D800D800D800D800D8 ;
   C8 : 00D800D800D800D800D801D8001801F900000000000000000000000000000000 ;
   C9 : 0000000000000000000001F9001801D900D800D800D800D800D800D800D800D8 ;
   CA : 00D800D800D800D800D801DF000001FF00000000000000000000000000000000 ;
   CB : 0000000000000000000001FF000001DF00D800D800D800D800D800D800D800D8 ;
   CC : 00D800D800D800D800D801D9001801D900D800D800D800D800D800D800D800D8 ;
   CD : 0000000000000000000001FF000001FF00000000000000000000000000000000 ;
   CE : 00D800D800D800D800D801DF000001DF00D800D800D800D800D800D800D800D8 ;
   CF : 0030003000300030003001FF000001FF00000000000000000000000000000000 ;
   D0 : 00D800D800D800D800D800D900D801FF00000000000000000000000000000000 ;
   D1 : 0000000000000000000001FE000001FF00300030003000300030003000300030 ;
   D2 : 000000000000000000000001000001FF00D800D800D800D800D800D800D800D8 ;
   D3 : 00D800D800D800D800D800D800D801F900000000000000000000000000000000 ;
   D4 : 0030003000300030003001F0003001F100000000000000000000000000000000 ;
   D5 : 0000000000000000000001F1003001F100300030003000300030003000300030 ;
   D6 : 000000000000000000000001000001F900D800D800D800D800D800D800D800D8 ;
   D7 : 00D800D800D800D800D800D800D801FF00D800D800D800D800D800D800D800D8 ;
   D8 : 0030003000300030003001FE003001FF00300030003000300030003000300030 ;
   D9 : 0030003000300030003000310030003F00000000000000000000000000000000 ;
   DA : 000000000000000000000000000001F000300030003000300030003000300030 ;
   DB : 01FE01FE01FE01FE01FE01FE01FE01FF01FE01FE01FE01FE01FE01FE01FE01FE ;
   DC : 000100010001000100010001000101FF01FF01FF01FF01FF01FF01FF01FF01FF ;
   DD : 001E001E001E001E001E001E001E001F001F001F001F001F001F001F001F001F ;
   DE : 01E001E001E001E001E001E001E001E001E001E001E001E001E001E001E001E0 ;
   DF : 01FF01FF01FF01FF01FF01FF01FF000100010001000100010001000100010001 ;
   E0 : 00000000000000000000006C00C600D600D600D600D6006C0000000000000000 ;
   E1 : 0000006000300018000000DC0066006600660066006600DC0000000000000000 ;
   E2 : 000000C000600030000000FC00060006007C0006000600FC0000000000000000 ;
   E3 : 000000C0006000300000007600CC00CC00CC00CC00CC00CC0000000000000000 ;
   E4 : 0000000000CC00CC000000300030003000300030003000E00000000000000000 ;
   E5 : 000000C000600030000000300030003000300030003000E00000000000000000 ;
   E6 : 000000C0006000300000007C00C600C600C600C600C6007C0000000000000000 ;
   E7 : 000000C000600030000000C600C600C600C600C600C6007C0000000000000000 ;
   E8 : 0000000000C600C6000000C600C600C600C600C600C6007C0000000000000000 ;
   E9 : 000000C0006000300000006C00C600D600D600D600D6006C0000000000000000 ;
   EA : 000C000600120038006C00C600C600FE00C600C600C600C60000000000000000 ;
   EB : 000C000600FA00980018001800F8001800180018009800F80000000000000000 ;
   EC : 0030003000D600C600C600C600FE00C600C600C600C600C60000000000000000 ;
   ED : 000C0006007A0030003000300030003000300030003000780000000000000000 ;
   EE : 000C0006007A00CC00CC00CC00CC00CC00CC00CC00CC00780000000000000000 ;
   EF : 0060003000CC00CC00CC00CC0078003000300030003000780000000000000000 ;
   F0 : 000C0006007A00CC00CC00CC00CC00CC00780000000000FC0000000000000000 ;
   F1 : 00000000000000000030003000FC003000300000000001FE0000000000000000 ;
   F2 : 00000000000000180030006000C0006000300018000000FC0000000000000000 ;
   F3 : 000000000000006000300018000C001800300060000000FC0000000000000000 ;
   F4 : 00C600C600380030003000300030003000300030003000780000000000000000 ;
   F5 : 00C600C6000000CC00CC00CC0078003000300030003000780000000000000000 ;
   F6 : 000000000000000000300030000000FC00000030003000000000000000000000 ;
   F7 : 0000000000000000000000DC0076000000DC0076000000000000000000000000 ;
   F8 : 00000038006C006C003800000000000000000000000000000000000000000000 ;
   F9 : 0000000000000000000000000000003000300000000000000000000000000000 ;
   FA : 0000000000000000000000000000000000300000000000000000000000000000 ;
   FB : 000001E000600060006000600060006E006C006C007800700000000000000000 ;
   FC : 00000036006C006C006C006C006C000000000000000000000000000000000000 ;
   FD : 0000001C00360018000C0026003E000000000000000000000000000000000000 ;
   FE : 0000000000000000007C007C007C007C007C007C007C00000000000000000000 ;
   FF : 0000000000000000000000000000000000000000000000000000000000000000 ;
END;